118434635
  -OEChem-02232614303D

 79 84  0     1  0  0  0  0  0999 V2000
   -1.3067    1.1315   -3.5101 Cl  0  0  0  0  0  0  0  0  0  0  0  0
    5.1784    2.8986    1.7012 O   0  0  0  0  0  0  0  0  0  0  0  0
    0.7688    3.8015   -0.1753 O   0  0  0  0  0  0  0  0  0  0  0  0
    1.7513    1.9673    0.7553 O   0  0  0  0  0  0  0  0  0  0  0  0
    3.6075   -0.9027   -1.0095 O   0  0  0  0  0  0  0  0  0  0  0  0
   -0.9507   -1.5459   -2.1913 O   0  0  0  0  0  0  0  0  0  0  0  0
   -7.6805    1.7630   -0.3124 O   0  0  0  0  0  0  0  0  0  0  0  0
   -8.0478    1.6779    2.5455 O   0  0  0  0  0  0  0  0  0  0  0  0
    3.9062    2.3188   -0.8593 N   0  0  2  0  0  0  0  0  0  0  0  0
    9.2559   -2.9198    0.9978 N   0  0  0  0  0  0  0  0  0  0  0  0
    3.0536    3.4820   -0.5995 C   0  0  2  0  0  0  0  0  0  0  0  0
    3.8628    4.3947    0.3259 C   0  0  0  0  0  0  0  0  0  0  0  0
    5.1960    3.6816    0.5126 C   0  0  2  0  0  0  0  0  0  0  0  0
    5.2923    2.7667   -0.6953 C   0  0  0  0  0  0  0  0  0  0  0  0
    3.6730    1.7157   -2.1646 C   0  0  0  0  0  0  0  0  0  0  0  0
    1.8173    2.9796    0.0739 C   0  0  0  0  0  0  0  0  0  0  0  0
    2.4455    0.8441   -2.1683 C   0  0  0  0  0  0  0  0  0  0  0  0
    2.4711   -0.4248   -1.5894 C   0  0  0  0  0  0  0  0  0  0  0  0
    1.2738    1.3176   -2.7590 C   0  0  0  0  0  0  0  0  0  0  0  0
    1.3251   -1.2200   -1.6010 C   0  0  0  0  0  0  0  0  0  0  0  0
    0.1277    0.5225   -2.7704 C   0  0  0  0  0  0  0  0  0  0  0  0
    0.1534   -0.7464   -2.1914 C   0  0  0  0  0  0  0  0  0  0  0  0
    3.4469   -1.8158    0.0745 C   0  0  0  0  0  0  0  0  0  0  0  0
   -1.0894   -2.4574   -1.1035 C   0  0  0  0  0  0  0  0  0  0  0  0
   -2.5481   -2.7123   -0.8610 C   0  0  0  0  0  0  0  0  0  0  0  0
   -3.3528   -1.7594   -0.2363 C   0  0  0  0  0  0  0  0  0  0  0  0
    4.5909   -1.6471    1.0307 C   0  0  0  0  0  0  0  0  0  0  0  0
   -4.7060   -2.0212   -0.0224 C   0  0  0  0  0  0  0  0  0  0  0  0
   -5.5653   -1.0501    0.6262 C   0  0  0  0  0  0  0  0  0  0  0  0
   -3.0969   -3.9272   -1.2718 C   0  0  0  0  0  0  0  0  0  0  0  0
   -5.2548   -3.2361   -0.4332 C   0  0  0  0  0  0  0  0  0  0  0  0
   -2.7507   -0.4594    0.2007 C   0  0  0  0  0  0  0  0  0  0  0  0
   -4.4504   -4.1889   -1.0581 C   0  0  0  0  0  0  0  0  0  0  0  0
   -6.2400   -0.0977   -0.1380 C   0  0  0  0  0  0  0  0  0  0  0  0
   -7.0608    0.8401    0.4889 C   0  0  0  0  0  0  0  0  0  0  0  0
    5.8517   -2.1489    0.7075 C   0  0  0  0  0  0  0  0  0  0  0  0
   -5.7131   -1.0670    2.0134 C   0  0  0  0  0  0  0  0  0  0  0  0
    4.3931   -0.9865    2.2434 C   0  0  0  0  0  0  0  0  0  0  0  0
   -7.2301    0.8060    1.8753 C   0  0  0  0  0  0  0  0  0  0  0  0
   -6.5444   -0.1381    2.6400 C   0  0  0  0  0  0  0  0  0  0  0  0
   -8.2013    2.8607    0.4421 C   0  0  0  0  0  0  0  0  0  0  0  0
   -8.9464    2.3532    1.6613 C   0  0  0  0  0  0  0  0  0  0  0  0
    6.9146   -1.9902    1.5968 C   0  0  0  0  0  0  0  0  0  0  0  0
    5.4561   -0.8276    3.1325 C   0  0  0  0  0  0  0  0  0  0  0  0
    6.7167   -1.3295    2.8093 C   0  0  0  0  0  0  0  0  0  0  0  0
    8.2065   -2.5032    1.2663 C   0  0  0  0  0  0  0  0  0  0  0  0
    2.7935    4.0195   -1.5202 H   0  0  0  0  0  0  0  0  0  0  0  0
    4.0347    5.3500   -0.1846 H   0  0  0  0  0  0  0  0  0  0  0  0
    3.3633    4.5954    1.2798 H   0  0  0  0  0  0  0  0  0  0  0  0
    6.0384    4.3772    0.5735 H   0  0  0  0  0  0  0  0  0  0  0  0
    5.6331    3.3326   -1.5713 H   0  0  0  0  0  0  0  0  0  0  0  0
    5.9607    1.9173   -0.5214 H   0  0  0  0  0  0  0  0  0  0  0  0
    4.5228    1.0753   -2.4403 H   0  0  0  0  0  0  0  0  0  0  0  0
    3.6245    2.4700   -2.9618 H   0  0  0  0  0  0  0  0  0  0  0  0
    5.0706    3.5090    2.4504 H   0  0  0  0  0  0  0  0  0  0  0  0
    1.2544    2.3074   -3.2098 H   0  0  0  0  0  0  0  0  0  0  0  0
   -0.0541    3.4859    0.2555 H   0  0  0  0  0  0  0  0  0  0  0  0
    1.3699   -2.2341   -1.2184 H   0  0  0  0  0  0  0  0  0  0  0  0
    3.4384   -2.8430   -0.3107 H   0  0  0  0  0  0  0  0  0  0  0  0
    2.5117   -1.6476    0.6253 H   0  0  0  0  0  0  0  0  0  0  0  0
   -0.6336   -2.0967   -0.1728 H   0  0  0  0  0  0  0  0  0  0  0  0
   -0.5850   -3.3950   -1.3700 H   0  0  0  0  0  0  0  0  0  0  0  0
   -2.4850   -4.6799   -1.7619 H   0  0  0  0  0  0  0  0  0  0  0  0
   -6.3077   -3.4581   -0.2748 H   0  0  0  0  0  0  0  0  0  0  0  0
   -1.8878   -0.6297    0.8527 H   0  0  0  0  0  0  0  0  0  0  0  0
   -2.4386    0.1247   -0.6698 H   0  0  0  0  0  0  0  0  0  0  0  0
   -3.4214    0.1833    0.7754 H   0  0  0  0  0  0  0  0  0  0  0  0
   -4.8778   -5.1346   -1.3785 H   0  0  0  0  0  0  0  0  0  0  0  0
   -6.1230   -0.0723   -1.2194 H   0  0  0  0  0  0  0  0  0  0  0  0
   -5.1897   -1.8010    2.6217 H   0  0  0  0  0  0  0  0  0  0  0  0
    6.0018   -2.6624   -0.2400 H   0  0  0  0  0  0  0  0  0  0  0  0
    3.4179   -0.5860    2.5071 H   0  0  0  0  0  0  0  0  0  0  0  0
   -6.6604   -0.1637    3.7200 H   0  0  0  0  0  0  0  0  0  0  0  0
   -8.8774    3.4220   -0.2103 H   0  0  0  0  0  0  0  0  0  0  0  0
   -7.3697    3.5194    0.7217 H   0  0  0  0  0  0  0  0  0  0  0  0
   -9.3891    3.1894    2.2114 H   0  0  0  0  0  0  0  0  0  0  0  0
   -9.7513    1.6612    1.3840 H   0  0  0  0  0  0  0  0  0  0  0  0
    5.3024   -0.3114    4.0756 H   0  0  0  0  0  0  0  0  0  0  0  0
    7.5354   -1.1972    3.5127 H   0  0  0  0  0  0  0  0  0  0  0  0
  1 21  1  0  0  0  0
  2 13  1  0  0  0  0
  2 55  1  0  0  0  0
  3 16  1  0  0  0  0
  3 57  1  0  0  0  0
  4 16  2  0  0  0  0
  5 18  1  0  0  0  0
  5 23  1  0  0  0  0
  6 22  1  0  0  0  0
  6 24  1  0  0  0  0
  7 35  1  0  0  0  0
  7 41  1  0  0  0  0
  8 39  1  0  0  0  0
  8 42  1  0  0  0  0
  9 11  1  0  0  0  0
  9 14  1  0  0  0  0
  9 15  1  0  0  0  0
 10 46  3  0  0  0  0
 11 12  1  0  0  0  0
 11 16  1  0  0  0  0
 11 47  1  0  0  0  0
 12 13  1  0  0  0  0
 12 48  1  0  0  0  0
 12 49  1  0  0  0  0
 13 14  1  0  0  0  0
 13 50  1  0  0  0  0
 14 51  1  0  0  0  0
 14 52  1  0  0  0  0
 15 17  1  0  0  0  0
 15 53  1  0  0  0  0
 15 54  1  0  0  0  0
 17 18  1  0  0  0  0
 17 19  2  0  0  0  0
 18 20  2  0  0  0  0
 19 21  1  0  0  0  0
 19 56  1  0  0  0  0
 20 22  1  0  0  0  0
 20 58  1  0  0  0  0
 21 22  2  0  0  0  0
 23 27  1  0  0  0  0
 23 59  1  0  0  0  0
 23 60  1  0  0  0  0
 24 25  1  0  0  0  0
 24 61  1  0  0  0  0
 24 62  1  0  0  0  0
 25 26  2  0  0  0  0
 25 30  1  0  0  0  0
 26 28  1  0  0  0  0
 26 32  1  0  0  0  0
 27 36  2  0  0  0  0
 27 38  1  0  0  0  0
 28 29  1  0  0  0  0
 28 31  2  0  0  0  0
 29 34  2  0  0  0  0
 29 37  1  0  0  0  0
 30 33  2  0  0  0  0
 30 63  1  0  0  0  0
 31 33  1  0  0  0  0
 31 64  1  0  0  0  0
 32 65  1  0  0  0  0
 32 66  1  0  0  0  0
 32 67  1  0  0  0  0
 33 68  1  0  0  0  0
 34 35  1  0  0  0  0
 34 69  1  0  0  0  0
 35 39  2  0  0  0  0
 36 43  1  0  0  0  0
 36 71  1  0  0  0  0
 37 40  2  0  0  0  0
 37 70  1  0  0  0  0
 38 44  2  0  0  0  0
 38 72  1  0  0  0  0
 39 40  1  0  0  0  0
 40 73  1  0  0  0  0
 41 42  1  0  0  0  0
 41 74  1  0  0  0  0
 41 75  1  0  0  0  0
 42 76  1  0  0  0  0
 42 77  1  0  0  0  0
 43 45  2  0  0  0  0
 43 46  1  0  0  0  0
 44 45  1  0  0  0  0
 44 78  1  0  0  0  0
 45 79  1  0  0  0  0
M  END
> <PUBCHEM_COMPOUND_CID>
118434635

> <PUBCHEM_CONFORMER_RMSD>
1.6

> <PUBCHEM_CONFORMER_DIVERSEORDER>
6
208
57
45
185
134
150
168
177
98
18
194
160
140
182
172
191
122
174
178
22
143
38
179
117
62
190
192
175
33
153
170
202
29
207
162
50
100
171
61
77
186
197
204
80
188
72
78
114
108
109
58
149
67
169
47
19
183
60
141
209
163
102
106
85
37
83
46
199
133
203
138
76
110
210
189
43
86
16
139
198
195
157
17
200
155
81
136
44
145
151
94
196
97
135
113
51
53
69
201
146
7
144
9
124
112
152
35
115
161
213
26
148
156
32
137
167
1
84
107
103
158
8
71
181
159
89
70
91
119
193
165
116
212
31
99
82
68
20
211
15
125
40
3
42
206
130
73
128
120
74
121
123
21
126
23
176
173
104
13
34
11
79
12
66
184
142
36
49
65
92
2
164
96
131
25
4
95
28
24
105
118
132
111
205
166
30
41
63
154
90
48
59
187
129
56
127
180
88
52
27
54
75
14
101
147
87
10
64
93
55
5
39

> <PUBCHEM_MMFF94_PARTIAL_CHARGES>
57
1 -0.18
10 -0.56
11 0.33
13 0.28
14 0.27
15 0.41
16 0.66
17 -0.14
18 0.08
19 -0.15
2 -0.68
20 -0.15
21 0.18
22 0.08
23 0.42
24 0.42
25 -0.14
26 -0.14
27 -0.14
3 -0.65
30 -0.15
31 -0.15
32 0.14
33 -0.15
34 -0.15
35 0.08
36 -0.15
37 -0.15
38 -0.15
39 0.08
4 -0.57
40 -0.15
41 0.28
42 0.28
43 0.07
44 -0.15
45 -0.15
46 0.48
5 -0.36
55 0.4
56 0.15
57 0.5
58 0.15
6 -0.36
63 0.15
64 0.15
68 0.15
69 0.15
7 -0.36
70 0.15
71 0.15
72 0.15
73 0.15
78 0.15
79 0.15
8 -0.36
9 -0.81

> <PUBCHEM_EFFECTIVE_ROTOR_COUNT>
11.8

> <PUBCHEM_PHARMACOPHORE_FEATURES>
17
1 10 acceptor
1 2 acceptor
1 2 donor
1 3 acceptor
1 4 acceptor
1 5 acceptor
1 6 acceptor
1 7 acceptor
1 8 acceptor
1 9 cation
3 3 4 16 anion
5 9 11 12 13 14 rings
6 17 18 19 20 21 22 rings
6 25 26 28 30 31 33 rings
6 27 36 38 43 44 45 rings
6 29 34 35 37 39 40 rings
6 7 8 35 39 41 42 rings

> <PUBCHEM_HEAVY_ATOM_COUNT>
46

> <PUBCHEM_ATOM_DEF_STEREO_COUNT>
2

> <PUBCHEM_ATOM_UDEF_STEREO_COUNT>
0

> <PUBCHEM_BOND_DEF_STEREO_COUNT>
0

> <PUBCHEM_BOND_UDEF_STEREO_COUNT>
0

> <PUBCHEM_ISOTOPIC_ATOM_COUNT>
0

> <PUBCHEM_COMPONENT_COUNT>
1

> <PUBCHEM_CACTVS_TAUTO_COUNT>
4

> <PUBCHEM_CONFORMER_ID>
070F2B4B00000006

> <PUBCHEM_MMFF94_ENERGY>
149.659

> <PUBCHEM_FEATURE_SELFOVERLAP>
86.379

> <PUBCHEM_SHAPE_FINGERPRINT>
10985338 8 17272305809985636052
12422481 6 17894642452887240631
12539747 363 17967249772242099900
13560911 23 18269555099514686367
13751561 76 16056885710955717240
13947947 63 18201442467671899717
14190465 44 18272651273251554991
15776043 110 18041560222186182347
16112460 7 18189608522453615986
19053607 189 17846789507296132863
19246450 95 17895472498135535167
19841028 212 17823968146998516227
20156587 77 14057004863202312981
2260408 40 17604147150542035004
23569914 2 16271060752781400720
3552219 110 18114182996314986990
4112364 45 18410580583081320939
44880168 125 15430044287996343747
5104073 3 18262804093951716623
6058803 2 17972890434286098087

> <PUBCHEM_SHAPE_MULTIPOLES>
897.48
25.53
5.48
3.2
19.89
2.11
0.27
-0.4
-23.46
-3.22
0.18
-0.74
0.08
-5.82

> <PUBCHEM_SHAPE_SELFOVERLAP>
1963.332

> <PUBCHEM_SHAPE_VOLUME>
486.7

> <PUBCHEM_COORDINATE_TYPE>
2
5
10

$$$$
