117951478
  -OEChem-02232614223D

 60 62  0     0  0  0  0  0  0999 V2000
   -1.1336    1.0246    0.8240 O   0  0  0  0  0  0  0  0  0  0  0  0
    3.0310    1.3906   -1.1755 O   0  0  0  0  0  0  0  0  0  0  0  0
    8.8540   -0.6720   -1.8606 O   0  0  0  0  0  0  0  0  0  0  0  0
    4.9781   -0.4573    0.6422 N   0  0  0  0  0  0  0  0  0  0  0  0
    0.9545    1.2072   -0.1742 N   0  0  0  0  0  0  0  0  0  0  0  0
    8.4241   -1.7549    0.1560 N   0  0  0  0  0  0  0  0  0  0  0  0
   -3.9143    0.2572   -0.3127 C   0  0  0  0  0  0  0  0  0  0  0  0
   -3.1429    1.4168   -0.3866 C   0  0  0  0  0  0  0  0  0  0  0  0
   -5.3046    0.3474   -0.2466 C   0  0  0  0  0  0  0  0  0  0  0  0
   -1.6524    1.3497   -0.4590 C   0  0  0  0  0  0  0  0  0  0  0  0
    4.4344    0.7700    1.2282 C   0  0  0  0  0  0  0  0  0  0  0  0
   -6.1294   -0.8388   -0.1685 C   0  0  0  0  0  0  0  0  0  0  0  0
    2.9491    0.8332    1.1396 C   0  0  0  0  0  0  0  0  0  0  0  0
   -3.7618    2.6669   -0.3946 C   0  0  0  0  0  0  0  0  0  0  0  0
    6.4285   -0.4736    0.7404 C   0  0  0  0  0  0  0  0  0  0  0  0
   -5.9237    1.5974   -0.2546 C   0  0  0  0  0  0  0  0  0  0  0  0
   -3.2369   -1.0784   -0.3066 C   0  0  0  0  0  0  0  0  0  0  0  0
   -5.1522    2.7571   -0.3287 C   0  0  0  0  0  0  0  0  0  0  0  0
    6.9881   -1.7326    0.0945 C   0  0  0  0  0  0  0  0  0  0  0  0
    0.2305    0.9581    0.9400 C   0  0  0  0  0  0  0  0  0  0  0  0
    2.2983    1.1380   -0.0451 C   0  0  0  0  0  0  0  0  0  0  0  0
    2.1704    0.5831    2.2640 C   0  0  0  0  0  0  0  0  0  0  0  0
    0.7844    0.6446    2.1707 C   0  0  0  0  0  0  0  0  0  0  0  0
   -6.5870   -1.4480   -1.3369 C   0  0  0  0  0  0  0  0  0  0  0  0
   -6.4667   -1.3732    1.0748 C   0  0  0  0  0  0  0  0  0  0  0  0
   -7.3822   -2.5916   -1.2620 C   0  0  0  0  0  0  0  0  0  0  0  0
   -7.2618   -2.5169    1.1499 C   0  0  0  0  0  0  0  0  0  0  0  0
   -7.7195   -3.1260   -0.0185 C   0  0  0  0  0  0  0  0  0  0  0  0
    9.2405   -1.2201   -0.8316 C   0  0  0  0  0  0  0  0  0  0  0  0
    2.2995    1.6967   -2.3566 C   0  0  0  0  0  0  0  0  0  0  0  0
   10.7037   -1.3553   -0.5053 C   0  0  0  0  0  0  0  0  0  0  0  0
   -1.3406    0.6116   -1.2088 H   0  0  0  0  0  0  0  0  0  0  0  0
   -1.2555    2.3220   -0.7816 H   0  0  0  0  0  0  0  0  0  0  0  0
    4.8552    1.6509    0.7256 H   0  0  0  0  0  0  0  0  0  0  0  0
    4.7443    0.8480    2.2788 H   0  0  0  0  0  0  0  0  0  0  0  0
   -3.1762    3.5808   -0.4494 H   0  0  0  0  0  0  0  0  0  0  0  0
    6.7451   -0.4308    1.7903 H   0  0  0  0  0  0  0  0  0  0  0  0
    6.8502    0.4059    0.2378 H   0  0  0  0  0  0  0  0  0  0  0  0
   -7.0064    1.6877   -0.2036 H   0  0  0  0  0  0  0  0  0  0  0  0
    4.5956   -1.2671    1.1303 H   0  0  0  0  0  0  0  0  0  0  0  0
   -2.7071   -1.2370   -1.2522 H   0  0  0  0  0  0  0  0  0  0  0  0
   -2.5237   -1.1453    0.5214 H   0  0  0  0  0  0  0  0  0  0  0  0
   -3.9070   -1.9324   -0.1860 H   0  0  0  0  0  0  0  0  0  0  0  0
   -5.6341    3.7305   -0.3343 H   0  0  0  0  0  0  0  0  0  0  0  0
    6.6772   -1.7989   -0.9547 H   0  0  0  0  0  0  0  0  0  0  0  0
    6.6282   -2.6285    0.6125 H   0  0  0  0  0  0  0  0  0  0  0  0
    2.6284    0.3371    3.2181 H   0  0  0  0  0  0  0  0  0  0  0  0
    0.1627    0.4515    3.0381 H   0  0  0  0  0  0  0  0  0  0  0  0
   -6.3328   -1.0447   -2.3143 H   0  0  0  0  0  0  0  0  0  0  0  0
   -6.1179   -0.9112    1.9954 H   0  0  0  0  0  0  0  0  0  0  0  0
    8.8539   -2.1715    0.9770 H   0  0  0  0  0  0  0  0  0  0  0  0
   -7.7384   -3.0661   -2.1717 H   0  0  0  0  0  0  0  0  0  0  0  0
   -7.5244   -2.9333    2.1180 H   0  0  0  0  0  0  0  0  0  0  0  0
   -8.3385   -4.0165    0.0399 H   0  0  0  0  0  0  0  0  0  0  0  0
    3.0193    1.8709   -3.1619 H   0  0  0  0  0  0  0  0  0  0  0  0
    1.7099    2.6108   -2.2285 H   0  0  0  0  0  0  0  0  0  0  0  0
    1.6603    0.8578   -2.6520 H   0  0  0  0  0  0  0  0  0  0  0  0
   11.3003   -1.1518   -1.3989 H   0  0  0  0  0  0  0  0  0  0  0  0
   10.9692   -0.6390    0.2769 H   0  0  0  0  0  0  0  0  0  0  0  0
   10.9252   -2.3696   -0.1612 H   0  0  0  0  0  0  0  0  0  0  0  0
  1 10  1  0  0  0  0
  1 20  1  0  0  0  0
  2 21  1  0  0  0  0
  2 30  1  0  0  0  0
  3 29  2  0  0  0  0
  4 11  1  0  0  0  0
  4 15  1  0  0  0  0
  4 40  1  0  0  0  0
  5 20  2  0  0  0  0
  5 21  1  0  0  0  0
  6 19  1  0  0  0  0
  6 29  1  0  0  0  0
  6 51  1  0  0  0  0
  7  8  2  0  0  0  0
  7  9  1  0  0  0  0
  7 17  1  0  0  0  0
  8 10  1  0  0  0  0
  8 14  1  0  0  0  0
  9 12  1  0  0  0  0
  9 16  2  0  0  0  0
 10 32  1  0  0  0  0
 10 33  1  0  0  0  0
 11 13  1  0  0  0  0
 11 34  1  0  0  0  0
 11 35  1  0  0  0  0
 12 24  2  0  0  0  0
 12 25  1  0  0  0  0
 13 21  2  0  0  0  0
 13 22  1  0  0  0  0
 14 18  2  0  0  0  0
 14 36  1  0  0  0  0
 15 19  1  0  0  0  0
 15 37  1  0  0  0  0
 15 38  1  0  0  0  0
 16 18  1  0  0  0  0
 16 39  1  0  0  0  0
 17 41  1  0  0  0  0
 17 42  1  0  0  0  0
 17 43  1  0  0  0  0
 18 44  1  0  0  0  0
 19 45  1  0  0  0  0
 19 46  1  0  0  0  0
 20 23  1  0  0  0  0
 22 23  2  0  0  0  0
 22 47  1  0  0  0  0
 23 48  1  0  0  0  0
 24 26  1  0  0  0  0
 24 49  1  0  0  0  0
 25 27  2  0  0  0  0
 25 50  1  0  0  0  0
 26 28  2  0  0  0  0
 26 52  1  0  0  0  0
 27 28  1  0  0  0  0
 27 53  1  0  0  0  0
 28 54  1  0  0  0  0
 29 31  1  0  0  0  0
 30 55  1  0  0  0  0
 30 56  1  0  0  0  0
 30 57  1  0  0  0  0
 31 58  1  0  0  0  0
 31 59  1  0  0  0  0
 31 60  1  0  0  0  0
M  END
> <PUBCHEM_COMPOUND_CID>
117951478

> <PUBCHEM_CONFORMER_RMSD>
1.2

> <PUBCHEM_CONFORMER_DIVERSEORDER>
1
112
102
58
73
21
66
35
83
116
125
51
45
100
48
64
67
24
72
34
25
41
90
55
101
30
114
107
109
80
47
105
98
12
120
99
89
49
43
92
129
117
20
70
124
110
84
62
39
44
61
87
78
106
9
71
3
96
28
23
108
52
85
11
19
68
122
5
69
103
17
128
13
29
59
119
115
111
27
38
94
76
8
10
121
123
7
37
75
60
26
95
63
57
6
88
40
33
77
42
118
79
91
54
56
127
50
36
126
22
16
31
53
2
93
14
113
4
104
65
82
81
32
97
74
86
18
15
46

> <PUBCHEM_MMFF94_PARTIAL_CHARGES>
41
1 -0.36
10 0.42
11 0.41
13 -0.14
14 -0.15
15 0.27
16 -0.15
17 0.14
18 -0.15
19 0.3
2 -0.36
20 0.39
21 0.39
22 -0.15
23 -0.15
24 -0.15
25 -0.15
26 -0.15
27 -0.15
28 -0.15
29 0.57
3 -0.57
30 0.28
31 0.06
36 0.15
39 0.15
4 -0.9
40 0.36
44 0.15
47 0.15
48 0.15
49 0.15
5 -0.62
50 0.15
51 0.37
52 0.15
53 0.15
54 0.15
6 -0.73
7 -0.14
8 -0.14

> <PUBCHEM_EFFECTIVE_ROTOR_COUNT>
11

> <PUBCHEM_PHARMACOPHORE_FEATURES>
8
1 2 acceptor
1 3 acceptor
1 4 cation
1 4 donor
1 6 donor
6 12 24 25 26 27 28 rings
6 5 13 20 21 22 23 rings
6 7 8 9 14 16 18 rings

> <PUBCHEM_HEAVY_ATOM_COUNT>
31

> <PUBCHEM_ATOM_DEF_STEREO_COUNT>
0

> <PUBCHEM_ATOM_UDEF_STEREO_COUNT>
0

> <PUBCHEM_BOND_DEF_STEREO_COUNT>
0

> <PUBCHEM_BOND_UDEF_STEREO_COUNT>
0

> <PUBCHEM_ISOTOPIC_ATOM_COUNT>
0

> <PUBCHEM_COMPONENT_COUNT>
1

> <PUBCHEM_CACTVS_TAUTO_COUNT>
18

> <PUBCHEM_CONFORMER_ID>
0707CBF600000001

> <PUBCHEM_MMFF94_ENERGY>
87.9126

> <PUBCHEM_FEATURE_SELFOVERLAP>
40.596

> <PUBCHEM_SHAPE_FINGERPRINT>
10670039 82 18187641397566827427
11456790 92 14333405666902883826
11578821 258 8142074373962208662
11607047 74 18047188841289763524
13782708 43 18130782400041158643
13911987 19 14562805543659494137
15183329 4 17240201015462782904
16994733 274 9439392537273004606
1818759 1 17489593355582947862
18681886 176 18186513324027290488
2026 5 18342459201842805550
20982279 24 17131568137421338190
21150785 3 17676491614795050952
21792938 703 17822580528472699818
21792965 169 17894922875212198527
23569943 247 17753879529245618930
23576562 1 15358274795673946582
3004659 81 17386552679099039425
3178227 256 15985382309691428264
5028188 123 18259984851558887900
504579 68 17458337551308815693
54039377 194 18411421721633607526
57527293 21 17344903238579016389
58083652 198 15841255009027375657
5937810 71 13623796195427529367
636775 8 18409169917588368874
9953998 17 11527945651504806082
9995097 26 18410295826686104210

> <PUBCHEM_SHAPE_MULTIPOLES>
605.41
31.25
2.97
1.68
57.81
0.64
-0.12
29.89
8.29
-5.93
0.55
1.38
-0.22
0.96

> <PUBCHEM_SHAPE_SELFOVERLAP>
1284.038

> <PUBCHEM_SHAPE_VOLUME>
337.8

> <PUBCHEM_COORDINATE_TYPE>
2
5
10

$$$$
